<routes>
            <vType id="typeWN" accel="0.8" decel="4.5" sigma="0.5" length="5" minGap="2.5" maxSpeed="16.67" guiShape="passenger"/>
            <vType id="typeWE" accel="0.8" decel="4.5" sigma="0.5" length="5" minGap="3" maxSpeed="16.67" guiShape="passenger"/>
            <vType id="typeWS" accel="0.8" decel="4.5" sigma="0.5" length="5" minGap="2" maxSpeed="16.67" guiShape="motorcycle"/>
            <vType id="typeNE" accel="0.8" decel="4.5" sigma="0.5" length="5" minGap="2.5" maxSpeed="16.67" guiShape="passenger"/>
            <vType id="typeNS" accel="0.8" decel="4.5" sigma="0.5" length="5" minGap="3" maxSpeed="16.67" guiShape="passenger"/>
            <vType id="typeNW" accel="0.8" decel="4.5" sigma="0.5" length="5" minGap="2" maxSpeed="16.67" guiShape="passenger"/>
            <vType id="typeES" accel="0.8" decel="4.5" sigma="0.5" length="5" minGap="2.5" maxSpeed="16.67" guiShape="passenger"/>
            <vType id="typeEW" accel="0.8" decel="4.5" sigma="0.5" length="5" minGap="3" maxSpeed="16.67" guiShape="truck"/>
            <vType id="typeEN" accel="0.8" decel="4.5" sigma="0.5" length="5" minGap="2.5" maxSpeed="16.67" guiShape="passenger"/>
            <vType id="typeSW" accel="0.8" decel="4.5" sigma="0.5" length="5" minGap="2.5" maxSpeed="16.67" guiShape="passenger"/>
            <vType id="typeSN" accel="0.8" decel="4.5" sigma="0.5" length="5" minGap="2.5" maxSpeed="16.67" guiShape="passenger"/>   
            <vType id="typeSE" accel="0.8" decel="4.5" sigma="0.5" length="7" minGap="3" maxSpeed="25" guiShape="bus"/>
            
            <route id="left_up" edges="E9 E8" />
            <route id="left_right" edges="E9 E10" />
            <route id="left_down" edges="E9 E11" />
            <route id="up_right" edges="-E8 E10" />
            <route id="up_down" edges="-E8 E11" />
            <route id="up_left" edges="-E8 -E9" />
            <route id="right_down" edges="-E10 E11" />
            <route id="right_left" edges="-E10 -E9" />
            <route id="right_up" edges="-E10 E8" />
            <route id="down_left" edges="-E11 -E9" />
            <route id="down_up" edges="-E11 E8" />
            <route id="down_right" edges="-E11 E10" />
    <vehicle id="right_down_0" type="typeES" route="right_down" depart="5" />
    <vehicle id="left_down_1" type="typeWS" route="left_down" depart="8" color="1,0,0"/>
    <vehicle id="right_up_2" type="typeEN" route="right_up" depart="10" color="1,0,0"/>
    <vehicle id="right_left_3" type="typeEW" route="right_left" depart="14" />
    <vehicle id="right_up_4" type="typeEN" route="right_up" depart="14" color="1,0,0"/>
    <vehicle id="right_left_5" type="typeEW" route="right_left" depart="17" />
    <vehicle id="right_left_6" type="typeEW" route="right_left" depart="18" />
    <vehicle id="right_up_7" type="typeEN" route="right_up" depart="18" color="1,0,0"/>
    <vehicle id="right_down_8" type="typeES" route="right_down" depart="21" />
    <vehicle id="right_left_9" type="typeEW" route="right_left" depart="28" />
    <vehicle id="down_left_10" type="typeWS" route="down_left" depart="29" />
    <vehicle id="right_down_11" type="typeES" route="right_down" depart="31" />
    <vehicle id="down_right_12" type="typeWE" route="down_right" depart="34" color="1,0,0"/>
    <vehicle id="right_left_13" type="typeEW" route="right_left" depart="35" />
    <vehicle id="right_left_14" type="typeEW" route="right_left" depart="36" />
    <vehicle id="right_up_15" type="typeEN" route="right_up" depart="38" color="1,0,0"/>
    <vehicle id="down_left_16" type="typeWS" route="down_left" depart="42" />
    <vehicle id="left_right_17" type="typeWE" route="left_right" depart="45" />
    <vehicle id="left_right_18" type="typeWE" route="left_right" depart="51" />
    <vehicle id="right_down_19" type="typeES" route="right_down" depart="54" />
    <vehicle id="right_down_20" type="typeES" route="right_down" depart="59" />
    <vehicle id="down_left_21" type="typeWS" route="down_left" depart="59" />
    <vehicle id="up_left_22" type="typeNW" route="up_left" depart="61" color="1,0,0"/>
    <vehicle id="right_up_23" type="typeEN" route="right_up" depart="61" color="1,0,0"/>
    <vehicle id="up_down_24" type="typeNS" route="up_down" depart="62" />
    <vehicle id="right_down_25" type="typeES" route="right_down" depart="63" />
    <vehicle id="right_down_26" type="typeES" route="right_down" depart="64" />
    <vehicle id="down_left_27" type="typeWS" route="down_left" depart="66" />
    <vehicle id="down_left_28" type="typeWS" route="down_left" depart="67" />
    <vehicle id="right_down_29" type="typeES" route="right_down" depart="73" />
    <vehicle id="left_up_30" type="typeWN" route="left_up" depart="78" />
    <vehicle id="up_right_31" type="typeNE" route="up_right" depart="83" />
    <vehicle id="up_left_32" type="typeNW" route="up_left" depart="87" color="1,0,0"/>
    <vehicle id="up_right_33" type="typeNE" route="up_right" depart="88" />
    <vehicle id="right_left_34" type="typeEW" route="right_left" depart="91" />
    <vehicle id="down_right_35" type="typeWE" route="down_right" depart="96" color="1,0,0"/>
    <vehicle id="right_up_36" type="typeEN" route="right_up" depart="97" color="1,0,0"/>
    <vehicle id="up_down_37" type="typeNS" route="up_down" depart="98" />
    <vehicle id="up_left_38" type="typeNW" route="up_left" depart="100" color="1,0,0"/>
    <vehicle id="right_up_39" type="typeEN" route="right_up" depart="102" color="1,0,0"/>
    <vehicle id="right_down_40" type="typeES" route="right_down" depart="106" />
    <vehicle id="right_down_41" type="typeES" route="right_down" depart="111" />
    <vehicle id="up_right_42" type="typeNE" route="up_right" depart="119" />
    <vehicle id="right_down_43" type="typeES" route="right_down" depart="122" />
    <vehicle id="left_up_44" type="typeWN" route="left_up" depart="123" />
    <vehicle id="right_down_45" type="typeES" route="right_down" depart="124" />
    <vehicle id="right_up_46" type="typeEN" route="right_up" depart="129" color="1,0,0"/>
    <vehicle id="up_down_47" type="typeNS" route="up_down" depart="130" />
    <vehicle id="right_up_48" type="typeEN" route="right_up" depart="133" color="1,0,0"/>
    <vehicle id="up_down_49" type="typeNS" route="up_down" depart="135" />
    <vehicle id="up_left_50" type="typeNW" route="up_left" depart="135" color="1,0,0"/>
    <vehicle id="down_left_51" type="typeWS" route="down_left" depart="136" />
    <vehicle id="right_up_52" type="typeEN" route="right_up" depart="141" color="1,0,0"/>
    <vehicle id="up_down_53" type="typeNS" route="up_down" depart="142" />
    <vehicle id="right_up_54" type="typeEN" route="right_up" depart="143" color="1,0,0"/>
    <vehicle id="right_up_55" type="typeEN" route="right_up" depart="145" color="1,0,0"/>
    <vehicle id="right_down_56" type="typeES" route="right_down" depart="148" />
    <vehicle id="down_left_57" type="typeWS" route="down_left" depart="154" />
    <vehicle id="up_down_58" type="typeNS" route="up_down" depart="155" />
    <vehicle id="right_left_59" type="typeEW" route="right_left" depart="157" />
    <vehicle id="up_down_60" type="typeNS" route="up_down" depart="159" />
    <vehicle id="up_down_61" type="typeNS" route="up_down" depart="165" />
    <vehicle id="right_up_62" type="typeEN" route="right_up" depart="168" color="1,0,0"/>
    <vehicle id="left_right_63" type="typeWE" route="left_right" depart="171" />
    <vehicle id="down_left_64" type="typeWS" route="down_left" depart="174" />
    <vehicle id="up_right_65" type="typeNE" route="up_right" depart="175" />
    <vehicle id="right_up_66" type="typeEN" route="right_up" depart="175" color="1,0,0"/>
    <vehicle id="down_left_67" type="typeWS" route="down_left" depart="180" />
    <vehicle id="right_left_68" type="typeEW" route="right_left" depart="181" />
    <vehicle id="up_left_69" type="typeNW" route="up_left" depart="182" color="1,0,0"/>
    <vehicle id="up_left_70" type="typeNW" route="up_left" depart="187" color="1,0,0"/>
    <vehicle id="up_left_71" type="typeNW" route="up_left" depart="191" color="1,0,0"/>
    <vehicle id="right_up_72" type="typeEN" route="right_up" depart="191" color="1,0,0"/>
    <vehicle id="down_up_73" type="typeWN" route="down_up" depart="193" />
    <vehicle id="down_left_74" type="typeWS" route="down_left" depart="195" />
    <vehicle id="right_down_75" type="typeES" route="right_down" depart="196" />
    <vehicle id="right_down_76" type="typeES" route="right_down" depart="198" />
    <vehicle id="down_left_77" type="typeWS" route="down_left" depart="199" />
    <vehicle id="right_down_78" type="typeES" route="right_down" depart="209" />
    <vehicle id="right_left_79" type="typeEW" route="right_left" depart="209" />
    <vehicle id="right_left_80" type="typeEW" route="right_left" depart="210" />
    <vehicle id="right_up_81" type="typeEN" route="right_up" depart="211" color="1,0,0"/>
    <vehicle id="left_right_82" type="typeWE" route="left_right" depart="216" />
    <vehicle id="right_down_83" type="typeES" route="right_down" depart="218" />
    <vehicle id="right_up_84" type="typeEN" route="right_up" depart="218" color="1,0,0"/>
    <vehicle id="up_left_85" type="typeNW" route="up_left" depart="220" color="1,0,0"/>
    <vehicle id="up_right_86" type="typeNE" route="up_right" depart="223" />
    <vehicle id="right_down_87" type="typeES" route="right_down" depart="224" />
    <vehicle id="right_up_88" type="typeEN" route="right_up" depart="225" color="1,0,0"/>
    <vehicle id="right_up_89" type="typeEN" route="right_up" depart="229" color="1,0,0"/>
    <vehicle id="right_down_90" type="typeES" route="right_down" depart="230" />
    <vehicle id="down_up_91" type="typeWN" route="down_up" depart="231" />
    <vehicle id="right_down_92" type="typeES" route="right_down" depart="235" />
    <vehicle id="down_right_93" type="typeWE" route="down_right" depart="235" color="1,0,0"/>
    <vehicle id="up_down_94" type="typeNS" route="up_down" depart="236" />
    <vehicle id="up_left_95" type="typeNW" route="up_left" depart="238" color="1,0,0"/>
    <vehicle id="up_down_96" type="typeNS" route="up_down" depart="242" />
    <vehicle id="right_up_97" type="typeEN" route="right_up" depart="244" color="1,0,0"/>
    <vehicle id="right_down_98" type="typeES" route="right_down" depart="246" />
    <vehicle id="right_up_99" type="typeEN" route="right_up" depart="250" color="1,0,0"/>
    <vehicle id="left_down_100" type="typeWS" route="left_down" depart="251" color="1,0,0"/>
    <vehicle id="up_left_101" type="typeNW" route="up_left" depart="251" color="1,0,0"/>
    <vehicle id="right_down_102" type="typeES" route="right_down" depart="253" />
    <vehicle id="down_left_103" type="typeWS" route="down_left" depart="258" />
    <vehicle id="down_up_104" type="typeWN" route="down_up" depart="260" />
    <vehicle id="left_right_105" type="typeWE" route="left_right" depart="262" />
    <vehicle id="right_down_106" type="typeES" route="right_down" depart="266" />
    <vehicle id="right_down_107" type="typeES" route="right_down" depart="268" />
    <vehicle id="right_down_108" type="typeES" route="right_down" depart="270" />
    <vehicle id="down_right_109" type="typeWE" route="down_right" depart="271" color="1,0,0"/>
    <vehicle id="right_down_110" type="typeES" route="right_down" depart="272" />
    <vehicle id="right_left_111" type="typeEW" route="right_left" depart="273" />
    <vehicle id="up_down_112" type="typeNS" route="up_down" depart="275" />
    <vehicle id="left_up_113" type="typeWN" route="left_up" depart="276" />
    <vehicle id="up_left_114" type="typeNW" route="up_left" depart="277" color="1,0,0"/>
    <vehicle id="down_left_115" type="typeWS" route="down_left" depart="281" />
    <vehicle id="up_left_116" type="typeNW" route="up_left" depart="284" color="1,0,0"/>
    <vehicle id="up_left_117" type="typeNW" route="up_left" depart="285" color="1,0,0"/>
    <vehicle id="right_down_118" type="typeES" route="right_down" depart="286" />
    <vehicle id="up_down_119" type="typeNS" route="up_down" depart="290" />
    <vehicle id="down_left_120" type="typeWS" route="down_left" depart="290" />
    <vehicle id="up_down_121" type="typeNS" route="up_down" depart="293" />
    <vehicle id="up_left_122" type="typeNW" route="up_left" depart="294" color="1,0,0"/>
    <vehicle id="up_down_123" type="typeNS" route="up_down" depart="295" />
    <vehicle id="up_right_124" type="typeNE" route="up_right" depart="297" />
    <vehicle id="right_down_125" type="typeES" route="right_down" depart="297" />
    <vehicle id="up_down_126" type="typeNS" route="up_down" depart="300" />
    <vehicle id="up_left_127" type="typeNW" route="up_left" depart="301" color="1,0,0"/>
    <vehicle id="up_right_128" type="typeNE" route="up_right" depart="303" />
    <vehicle id="right_up_129" type="typeEN" route="right_up" depart="304" color="1,0,0"/>
    <vehicle id="down_left_130" type="typeWS" route="down_left" depart="305" />
    <vehicle id="left_right_131" type="typeWE" route="left_right" depart="309" />
    <vehicle id="up_down_132" type="typeNS" route="up_down" depart="309" />
    <vehicle id="up_right_133" type="typeNE" route="up_right" depart="310" />
    <vehicle id="up_down_134" type="typeNS" route="up_down" depart="310" />
    <vehicle id="right_down_135" type="typeES" route="right_down" depart="310" />
    <vehicle id="up_right_136" type="typeNE" route="up_right" depart="311" />
    <vehicle id="up_left_137" type="typeNW" route="up_left" depart="313" color="1,0,0"/>
    <vehicle id="down_right_138" type="typeWE" route="down_right" depart="322" color="1,0,0"/>
    <vehicle id="right_down_139" type="typeES" route="right_down" depart="323" />
    <vehicle id="right_up_140" type="typeEN" route="right_up" depart="323" color="1,0,0"/>
    <vehicle id="right_up_141" type="typeEN" route="right_up" depart="329" color="1,0,0"/>
    <vehicle id="up_right_142" type="typeNE" route="up_right" depart="331" />
    <vehicle id="up_down_143" type="typeNS" route="up_down" depart="331" />
    <vehicle id="up_left_144" type="typeNW" route="up_left" depart="331" color="1,0,0"/>
    <vehicle id="right_down_145" type="typeES" route="right_down" depart="340" />
    <vehicle id="up_left_146" type="typeNW" route="up_left" depart="343" color="1,0,0"/>
    <vehicle id="up_left_147" type="typeNW" route="up_left" depart="344" color="1,0,0"/>
    <vehicle id="down_left_148" type="typeWS" route="down_left" depart="344" />
    <vehicle id="up_down_149" type="typeNS" route="up_down" depart="346" />
    <vehicle id="up_down_150" type="typeNS" route="up_down" depart="352" />
    <vehicle id="right_down_151" type="typeES" route="right_down" depart="358" />
    <vehicle id="up_down_152" type="typeNS" route="up_down" depart="360" />
    <vehicle id="right_down_153" type="typeES" route="right_down" depart="364" />
    <vehicle id="right_up_154" type="typeEN" route="right_up" depart="364" color="1,0,0"/>
    <vehicle id="down_right_155" type="typeWE" route="down_right" depart="364" color="1,0,0"/>
    <vehicle id="down_left_156" type="typeWS" route="down_left" depart="365" />
    <vehicle id="down_left_157" type="typeWS" route="down_left" depart="368" />
    <vehicle id="right_up_158" type="typeEN" route="right_up" depart="369" color="1,0,0"/>
    <vehicle id="up_down_159" type="typeNS" route="up_down" depart="371" />
    <vehicle id="right_down_160" type="typeES" route="right_down" depart="372" />
    <vehicle id="right_down_161" type="typeES" route="right_down" depart="373" />
    <vehicle id="right_up_162" type="typeEN" route="right_up" depart="377" color="1,0,0"/>
    <vehicle id="down_left_163" type="typeWS" route="down_left" depart="377" />
    <vehicle id="up_left_164" type="typeNW" route="up_left" depart="378" color="1,0,0"/>
    <vehicle id="up_down_165" type="typeNS" route="up_down" depart="379" />
    <vehicle id="right_down_166" type="typeES" route="right_down" depart="380" />
    <vehicle id="right_left_167" type="typeEW" route="right_left" depart="380" />
    <vehicle id="left_down_168" type="typeWS" route="left_down" depart="381" color="1,0,0"/>
    <vehicle id="down_left_169" type="typeWS" route="down_left" depart="382" />
    <vehicle id="down_up_170" type="typeWN" route="down_up" depart="384" />
    <vehicle id="right_up_171" type="typeEN" route="right_up" depart="387" color="1,0,0"/>
    <vehicle id="right_up_172" type="typeEN" route="right_up" depart="389" color="1,0,0"/>
    <vehicle id="up_left_173" type="typeNW" route="up_left" depart="392" color="1,0,0"/>
    <vehicle id="left_right_174" type="typeWE" route="left_right" depart="395" />
    <vehicle id="up_down_175" type="typeNS" route="up_down" depart="395" />
    <vehicle id="right_down_176" type="typeES" route="right_down" depart="395" />
    <vehicle id="right_down_177" type="typeES" route="right_down" depart="397" />
    <vehicle id="right_left_178" type="typeEW" route="right_left" depart="398" />
    <vehicle id="up_left_179" type="typeNW" route="up_left" depart="402" color="1,0,0"/>
    <vehicle id="up_down_180" type="typeNS" route="up_down" depart="406" />
    <vehicle id="right_up_181" type="typeEN" route="right_up" depart="406" color="1,0,0"/>
    <vehicle id="right_up_182" type="typeEN" route="right_up" depart="414" color="1,0,0"/>
    <vehicle id="down_left_183" type="typeWS" route="down_left" depart="415" />
    <vehicle id="right_down_184" type="typeES" route="right_down" depart="417" />
    <vehicle id="down_right_185" type="typeWE" route="down_right" depart="418" color="1,0,0"/>
    <vehicle id="up_left_186" type="typeNW" route="up_left" depart="420" color="1,0,0"/>
    <vehicle id="up_left_187" type="typeNW" route="up_left" depart="422" color="1,0,0"/>
    <vehicle id="up_left_188" type="typeNW" route="up_left" depart="429" color="1,0,0"/>
    <vehicle id="right_up_189" type="typeEN" route="right_up" depart="433" color="1,0,0"/>
    <vehicle id="down_left_190" type="typeWS" route="down_left" depart="438" />
    <vehicle id="up_down_191" type="typeNS" route="up_down" depart="446" />
    <vehicle id="down_left_192" type="typeWS" route="down_left" depart="446" />
    <vehicle id="up_down_193" type="typeNS" route="up_down" depart="447" />
    <vehicle id="down_left_194" type="typeWS" route="down_left" depart="448" />
    <vehicle id="up_down_195" type="typeNS" route="up_down" depart="452" />
    <vehicle id="right_left_196" type="typeEW" route="right_left" depart="454" />
    <vehicle id="right_up_197" type="typeEN" route="right_up" depart="454" color="1,0,0"/>
    <vehicle id="up_down_198" type="typeNS" route="up_down" depart="457" />
    <vehicle id="right_left_199" type="typeEW" route="right_left" depart="457" />
    <vehicle id="left_up_200" type="typeWN" route="left_up" depart="459" />
    <vehicle id="right_up_201" type="typeEN" route="right_up" depart="459" color="1,0,0"/>
    <vehicle id="up_down_202" type="typeNS" route="up_down" depart="461" />
    <vehicle id="right_down_203" type="typeES" route="right_down" depart="464" />
    <vehicle id="down_left_204" type="typeWS" route="down_left" depart="465" />
    <vehicle id="right_down_205" type="typeES" route="right_down" depart="468" />
    <vehicle id="right_down_206" type="typeES" route="right_down" depart="469" />
    <vehicle id="right_down_207" type="typeES" route="right_down" depart="471" />
    <vehicle id="up_left_208" type="typeNW" route="up_left" depart="472" color="1,0,0"/>
    <vehicle id="up_left_209" type="typeNW" route="up_left" depart="473" color="1,0,0"/>
    <vehicle id="up_left_210" type="typeNW" route="up_left" depart="474" color="1,0,0"/>
    <vehicle id="up_left_211" type="typeNW" route="up_left" depart="475" color="1,0,0"/>
    <vehicle id="left_up_212" type="typeWN" route="left_up" depart="476" />
    <vehicle id="up_left_213" type="typeNW" route="up_left" depart="481" color="1,0,0"/>
    <vehicle id="right_up_214" type="typeEN" route="right_up" depart="489" color="1,0,0"/>
    <vehicle id="up_right_215" type="typeNE" route="up_right" depart="491" />
    <vehicle id="up_left_216" type="typeNW" route="up_left" depart="492" color="1,0,0"/>
    <vehicle id="up_left_217" type="typeNW" route="up_left" depart="495" color="1,0,0"/>
    <vehicle id="down_left_218" type="typeWS" route="down_left" depart="495" />
    <vehicle id="down_left_219" type="typeWS" route="down_left" depart="498" />
    <vehicle id="right_down_220" type="typeES" route="right_down" depart="500" />
    <vehicle id="right_up_221" type="typeEN" route="right_up" depart="501" color="1,0,0"/>
    <vehicle id="right_down_222" type="typeES" route="right_down" depart="502" />
    <vehicle id="left_up_223" type="typeWN" route="left_up" depart="506" />
    <vehicle id="right_up_224" type="typeEN" route="right_up" depart="509" color="1,0,0"/>
    <vehicle id="up_right_225" type="typeNE" route="up_right" depart="510" />
    <vehicle id="up_left_226" type="typeNW" route="up_left" depart="513" color="1,0,0"/>
    <vehicle id="right_up_227" type="typeEN" route="right_up" depart="515" color="1,0,0"/>
    <vehicle id="left_right_228" type="typeWE" route="left_right" depart="517" />
    <vehicle id="right_up_229" type="typeEN" route="right_up" depart="521" color="1,0,0"/>
    <vehicle id="up_down_230" type="typeNS" route="up_down" depart="526" />
    <vehicle id="right_up_231" type="typeEN" route="right_up" depart="534" color="1,0,0"/>
    <vehicle id="up_right_232" type="typeNE" route="up_right" depart="538" />
    <vehicle id="right_up_233" type="typeEN" route="right_up" depart="538" color="1,0,0"/>
    <vehicle id="up_down_234" type="typeNS" route="up_down" depart="539" />
    <vehicle id="down_up_235" type="typeWN" route="down_up" depart="540" />
    <vehicle id="right_down_236" type="typeES" route="right_down" depart="544" />
    <vehicle id="down_left_237" type="typeWS" route="down_left" depart="545" />
    <vehicle id="up_down_238" type="typeNS" route="up_down" depart="546" />
    <vehicle id="down_left_239" type="typeWS" route="down_left" depart="546" />
    <vehicle id="up_down_240" type="typeNS" route="up_down" depart="549" />
    <vehicle id="right_down_241" type="typeES" route="right_down" depart="550" />
    <vehicle id="right_left_242" type="typeEW" route="right_left" depart="551" />
    <vehicle id="down_right_243" type="typeWE" route="down_right" depart="551" color="1,0,0"/>
    <vehicle id="up_right_244" type="typeNE" route="up_right" depart="552" />
    <vehicle id="up_right_245" type="typeNE" route="up_right" depart="553" />
    <vehicle id="up_down_246" type="typeNS" route="up_down" depart="558" />
    <vehicle id="up_right_247" type="typeNE" route="up_right" depart="559" />
    <vehicle id="down_left_248" type="typeWS" route="down_left" depart="560" />
    <vehicle id="right_up_249" type="typeEN" route="right_up" depart="564" color="1,0,0"/>
    <vehicle id="right_down_250" type="typeES" route="right_down" depart="566" />
    <vehicle id="up_left_251" type="typeNW" route="up_left" depart="567" color="1,0,0"/>
    <vehicle id="right_down_252" type="typeES" route="right_down" depart="569" />
    <vehicle id="up_right_253" type="typeNE" route="up_right" depart="571" />
    <vehicle id="up_down_254" type="typeNS" route="up_down" depart="574" />
    <vehicle id="up_left_255" type="typeNW" route="up_left" depart="574" color="1,0,0"/>
    <vehicle id="right_up_256" type="typeEN" route="right_up" depart="579" color="1,0,0"/>
    <vehicle id="up_down_257" type="typeNS" route="up_down" depart="580" />
    <vehicle id="up_down_258" type="typeNS" route="up_down" depart="583" />
    <vehicle id="right_left_259" type="typeEW" route="right_left" depart="585" />
    <vehicle id="up_down_260" type="typeNS" route="up_down" depart="588" />
    <vehicle id="up_down_261" type="typeNS" route="up_down" depart="590" />
    <vehicle id="right_up_262" type="typeEN" route="right_up" depart="590" color="1,0,0"/>
    <vehicle id="right_up_263" type="typeEN" route="right_up" depart="594" color="1,0,0"/>
    <vehicle id="down_left_264" type="typeWS" route="down_left" depart="596" />
    <vehicle id="up_down_265" type="typeNS" route="up_down" depart="601" />
    <vehicle id="right_down_266" type="typeES" route="right_down" depart="603" />
    <vehicle id="right_down_267" type="typeES" route="right_down" depart="604" />
    <vehicle id="right_up_268" type="typeEN" route="right_up" depart="605" color="1,0,0"/>
    <vehicle id="left_down_269" type="typeWS" route="left_down" depart="607" color="1,0,0"/>
    <vehicle id="up_down_270" type="typeNS" route="up_down" depart="609" />
    <vehicle id="up_left_271" type="typeNW" route="up_left" depart="612" color="1,0,0"/>
    <vehicle id="right_down_272" type="typeES" route="right_down" depart="612" />
    <vehicle id="down_left_273" type="typeWS" route="down_left" depart="613" />
    <vehicle id="down_left_274" type="typeWS" route="down_left" depart="615" />
    <vehicle id="right_down_275" type="typeES" route="right_down" depart="619" />
    <vehicle id="left_down_276" type="typeWS" route="left_down" depart="623" color="1,0,0"/>
    <vehicle id="up_down_277" type="typeNS" route="up_down" depart="624" />
    <vehicle id="down_up_278" type="typeWN" route="down_up" depart="631" />
    <vehicle id="right_left_279" type="typeEW" route="right_left" depart="636" />
    <vehicle id="right_down_280" type="typeES" route="right_down" depart="637" />
    <vehicle id="down_up_281" type="typeWN" route="down_up" depart="639" />
    <vehicle id="down_left_282" type="typeWS" route="down_left" depart="644" />
    <vehicle id="up_right_283" type="typeNE" route="up_right" depart="645" />
    <vehicle id="right_up_284" type="typeEN" route="right_up" depart="651" color="1,0,0"/>
    <vehicle id="right_down_285" type="typeES" route="right_down" depart="659" />
    <vehicle id="up_right_286" type="typeNE" route="up_right" depart="663" />
    <vehicle id="up_down_287" type="typeNS" route="up_down" depart="670" />
    <vehicle id="right_down_288" type="typeES" route="right_down" depart="673" />
    <vehicle id="left_up_289" type="typeWN" route="left_up" depart="675" />
    <vehicle id="right_up_290" type="typeEN" route="right_up" depart="676" color="1,0,0"/>
    <vehicle id="down_left_291" type="typeWS" route="down_left" depart="679" />
    <vehicle id="up_left_292" type="typeNW" route="up_left" depart="680" color="1,0,0"/>
    <vehicle id="up_right_293" type="typeNE" route="up_right" depart="684" />
    <vehicle id="up_down_294" type="typeNS" route="up_down" depart="690" />
    <vehicle id="right_left_295" type="typeEW" route="right_left" depart="691" />
    <vehicle id="up_left_296" type="typeNW" route="up_left" depart="697" color="1,0,0"/>
    <vehicle id="up_down_297" type="typeNS" route="up_down" depart="698" />
    <vehicle id="up_right_298" type="typeNE" route="up_right" depart="699" />
    <vehicle id="up_down_299" type="typeNS" route="up_down" depart="699" />
    <vehicle id="right_left_300" type="typeEW" route="right_left" depart="701" />
    <vehicle id="right_down_301" type="typeES" route="right_down" depart="702" />
    <vehicle id="up_down_302" type="typeNS" route="up_down" depart="705" />
    <vehicle id="up_left_303" type="typeNW" route="up_left" depart="711" color="1,0,0"/>
    <vehicle id="up_down_304" type="typeNS" route="up_down" depart="713" />
    <vehicle id="right_up_305" type="typeEN" route="right_up" depart="713" color="1,0,0"/>
    <vehicle id="up_down_306" type="typeNS" route="up_down" depart="721" />
    <vehicle id="right_up_307" type="typeEN" route="right_up" depart="724" color="1,0,0"/>
    <vehicle id="up_right_308" type="typeNE" route="up_right" depart="725" />
    <vehicle id="right_down_309" type="typeES" route="right_down" depart="729" />
    <vehicle id="left_right_310" type="typeWE" route="left_right" depart="733" />
    <vehicle id="up_down_311" type="typeNS" route="up_down" depart="734" />
    <vehicle id="up_down_312" type="typeNS" route="up_down" depart="737" />
    <vehicle id="right_up_313" type="typeEN" route="right_up" depart="737" color="1,0,0"/>
    <vehicle id="right_up_314" type="typeEN" route="right_up" depart="738" color="1,0,0"/>
    <vehicle id="down_up_315" type="typeWN" route="down_up" depart="738" />
    <vehicle id="right_left_316" type="typeEW" route="right_left" depart="743" />
    <vehicle id="up_down_317" type="typeNS" route="up_down" depart="745" />
    <vehicle id="down_up_318" type="typeWN" route="down_up" depart="745" />
    <vehicle id="up_down_319" type="typeNS" route="up_down" depart="748" />
    <vehicle id="down_right_320" type="typeWE" route="down_right" depart="748" color="1,0,0"/>
    <vehicle id="up_down_321" type="typeNS" route="up_down" depart="751" />
    <vehicle id="down_left_322" type="typeWS" route="down_left" depart="754" />
    <vehicle id="up_down_323" type="typeNS" route="up_down" depart="755" />
    <vehicle id="right_up_324" type="typeEN" route="right_up" depart="756" color="1,0,0"/>
    <vehicle id="up_down_325" type="typeNS" route="up_down" depart="757" />
    <vehicle id="up_down_326" type="typeNS" route="up_down" depart="760" />
    <vehicle id="left_up_327" type="typeWN" route="left_up" depart="761" />
    <vehicle id="left_down_328" type="typeWS" route="left_down" depart="764" color="1,0,0"/>
    <vehicle id="right_left_329" type="typeEW" route="right_left" depart="767" />
    <vehicle id="down_up_330" type="typeWN" route="down_up" depart="775" />
    <vehicle id="right_up_331" type="typeEN" route="right_up" depart="777" color="1,0,0"/>
    <vehicle id="up_down_332" type="typeNS" route="up_down" depart="780" />
    <vehicle id="right_down_333" type="typeES" route="right_down" depart="787" />
    <vehicle id="right_up_334" type="typeEN" route="right_up" depart="788" color="1,0,0"/>
    <vehicle id="down_left_335" type="typeWS" route="down_left" depart="789" />